# generated using pymatgen
data_CrBr3
_symmetry_space_group_name_H-M   'P 1'
_cell_length_a   6.37847564
_cell_length_b   6.37847564
_cell_length_c   18.94789674
_cell_angle_alpha   90.00000000
_cell_angle_beta   90.00000000
_cell_angle_gamma   120.00000000
_symmetry_Int_Tables_number   1
_chemical_formula_structural   CrBr3
_chemical_formula_sum   'Cr6 Br18'
_cell_volume   667.61401354
_cell_formula_units_Z   6
loop_
 _symmetry_equiv_pos_site_id
 _symmetry_equiv_pos_as_xyz
  1  'x, y, z'
loop_
 _atom_type_symbol
 _atom_type_oxidation_number
  Cr3+  3.0
  Br-  -1.0
loop_
 _atom_site_type_symbol
 _atom_site_label
 _atom_site_symmetry_multiplicity
 _atom_site_fract_x
 _atom_site_fract_y
 _atom_site_fract_z
 _atom_site_occupancy
  Cr3+  Cr0  1  0.00000000  0.00000000  0.00014017  1
  Cr3+  Cr1  1  0.00000000  0.00000000  0.66750792  1
  Cr3+  Cr2  1  0.33333333  0.66666667  0.33221606  1
  Cr3+  Cr3  1  0.33333333  0.66666667  0.00040955  1
  Cr3+  Cr4  1  0.66666667  0.33333333  0.66724214  1
  Cr3+  Cr5  1  0.66666667  0.33333333  0.33251921  1
  Br-  Br6  1  0.31214850  0.33385707  0.92448109  1
  Br-  Br7  1  0.66614293  0.97829143  0.92448109  1
  Br-  Br8  1  0.02170857  0.68785150  0.92448109  1
  Br-  Br9  1  0.66715801  0.68837557  0.07605948  1
  Br-  Br10  1  0.31162443  0.97878244  0.07605948  1
  Br-  Br11  1  0.02121756  0.33284199  0.07605948  1
  Br-  Br12  1  0.35513060  0.35449430  0.25650591  1
  Br-  Br13  1  0.64550570  0.00063630  0.25650591  1
  Br-  Br14  1  0.99936370  0.64486940  0.25650591  1
  Br-  Br15  1  0.64490046  0.64546281  0.40820146  1
  Br-  Br16  1  0.35453719  0.99943765  0.40820146  1
  Br-  Br17  1  0.00056235  0.35509954  0.40820146  1
  Br-  Br18  1  0.33283750  0.31160096  0.59151591  1
  Br-  Br19  1  0.68839904  0.02123654  0.59151591  1
  Br-  Br20  1  0.97876346  0.66716250  0.59151591  1
  Br-  Br21  1  0.68787845  0.66607872  0.74322509  1
  Br-  Br22  1  0.33392128  0.02179973  0.74322509  1
  Br-  Br23  1  0.97820027  0.31212155  0.74322509  1
